Circuit: * C:\Gits\rf-receiver\Hardware\30mhzLP\30mhzlp.asc


Date: Fri Nov 08 21:12:34 2019
Total elapsed time: 0.061 seconds.

tnom = 27
temp = 27
method = trap
totiter = 0
traniter = 0
tranpoints = 0
accept = 0
rejected = 0
matrix size = 4
fillins = 0
solver = Normal

