Circuit: * C:\Gits\rf-receiver\Hardware\30mhzLP\Draft1.asc

Direct Newton iteration failed to find .op point.  (Use ".option noopiter" to skip.)
Starting Gmin stepping
Gmin = 10
Gmin = 1.07374
Gmin = 0.115292
Gmin = 0.0123794
Gmin = 0.00132923
Gmin = 0.000142725
Gmin = 1.5325e-05
vernier = 0.5
vernier = 0.25
Gmin = 3.21388e-06
vernier = 0.125
vernier = 0.0625
vernier = 0.03125
vernier = 0.015625
vernier = 0.0078125
vernier = 0.00390625
vernier = 0.00195313
vernier = 0.000976563
vernier = 0.000488281
Gmin = 0
Gmin = 0
Gmin stepping failed

Starting source stepping with srcstepmethod=0
Source Step = 3.0303%
Source Step = 33.3333%
Source Step = 42.4242%
Source Step = 50%
Source Step = 57.5758%
Source Step = 65.1515%
Source Step = 72.7273%
vernier = 0.375
Source Step = 82.9545%
Source Step = 94.3182%
Source stepping succeeded in finding the operating point.

Direct Newton iteration failed to find .op point.  (Use ".option noopiter" to skip.)
Starting Gmin stepping
Gmin = 10
Gmin = 1.07374
Gmin = 0.115292
Gmin = 0.0123794
Gmin = 0.00132923
Gmin = 0.000142725
Gmin = 1.5325e-05
Gmin = 1.6455e-06
Gmin = 1.76685e-07
Gmin = 1.89714e-08
Gmin = 2.03704e-09
Gmin = 2.18725e-10
Gmin = 2.34854e-11
Gmin = 2.52173e-12
vernier = 0.5
vernier = 0.666667
Gmin = 8.22493e-13
vernier = 0.333333
vernier = 0.166667
vernier = 0.222222
Gmin = 6.01903e-13
vernier = 0.296296
Gmin = 3.15789e-13
vernier = 0.395061
vernier = 0.197531
vernier = 0.0987653
Gmin = 2.15928e-13
vernier = 0.131687
vernier = 0.0658435
vernier = 0.0329218
Gmin = 1.95792e-13
vernier = 0.0164609
Gmin = 1.87153e-13
vernier = 0.00823044
vernier = 0.0109739
Gmin = 1.83974e-13
vernier = 0.00548696
vernier = 0.00274348
vernier = 0.00137174
Gmin = 1.83911e-13
vernier = 0.00182899
vernier = 0.000914493
Gmin = 1.83491e-13
vernier = 0.00121932
vernier = 0.00162576
Gmin = 1.82858e-13
vernier = 0.000812882
vernier = 0.00108384
Gmin = 1.82549e-13
vernier = 0.000541921
vernier = 0.000722562
Gmin = 1.82326e-13
vernier = 0.000963415
vernier = 0.000481708
Gmin = 1.82052e-13
vernier = 0.000642277
vernier = 0.000856369
Gmin = 1.81772e-13
vernier = 0.00114182
vernier = 0.000570912
Gmin = 1.81448e-13
vernier = 0.000428184
vernier = 0.000570912
Gmin = 1.81274e-13
vernier = 0.000428184
vernier = 0.000570912
Gmin = 1.81099e-13
vernier = 0.000428184
vernier = 0.000570912
Gmin = 1.80925e-13
vernier = 0.000761216
vernier = 0.000570912
vernier = 0.000428184
Gmin = 1.8077e-13
vernier = 0.000570912
vernier = 0.000761215
vernier = 0.000570912
vernier = 0.000428184
Gmin = 1.80596e-13
vernier = 0.000570911
Gmin = 1.8037e-13
vernier = 0.000428184
Gmin = 0
Gmin stepping failed

Starting source stepping with srcstepmethod=0
Source Step = 3.0303%
Source Step = 33.3333%
Source Step = 63.6364%
Source Step = 72.7273%
Source Step = 75%
Source Step = 76.8939%
Source Step = 78.7879%
vernier = 0.015625
Source Step = 79.072%
Source Step = 79.5455%
Source Step = 79.6875%
Source Step = 79.8059%
Source Step = 79.9242%
Source Step = 80.0426%
Source Step = 80.161%
vernier = 0.00585938
Source Step = 80.2764%
Source Step = 80.3208%
Source Step = 80.3652%
Source Step = 80.4096%
Source Step = 80.454%
vernier = 0.00219727
Source Step = 80.5006%
Source Step = 80.5671%
Source Step = 80.6337%
Source Step = 80.7003%
Source Step = 80.7669%
Source Step = 80.8335%
Source Step = 80.9001%
Source Step = 80.9666%
Source Step = 81.0332%
vernier = 0.0032959
Source Step = 81.1298%
Source Step = 81.2297%
Source Step = 81.3295%
Source Step = 81.4294%
Source Step = 81.5293%
vernier = 0.00494385
Source Step = 81.6691%
Source Step = 81.8189%
Source Step = 81.9687%
Source Step = 82.1185%
Source Step = 82.2684%
vernier = 0.00741577
Source Step = 82.4706%
Source Step = 82.6953%
Source Step = 82.9201%
Source Step = 83.1448%
Source Step = 83.3695%
vernier = 0.0111237
Source Step = 83.6616%
Source Step = 83.9987%
Source Step = 84.3358%
Source Step = 84.6729%
Source Step = 85.01%
vernier = 0.0166855
Source Step = 85.4313%
Source Step = 85.9369%
Source Step = 86.4425%
Source Step = 86.9482%
Source Step = 87.4538%
vernier = 0.0250282
Source Step = 88.0605%
Source Step = 88.819%
Source Step = 89.5774%
Source Step = 90.3358%
Source Step = 91.0943%
vernier = 0.0375423
Source Step = 91.9664%
Source Step = 93.1041%
Source Step = 93.7867%
Source Step = 93.936%
Source Step = 94.0071%
Source Step = 94.0782%
Source Step = 94.1493%
Source Step = 94.2204%
Source Step = 94.2915%
Source Step = 94.3626%
Source Step = 94.4337%
Source Step = 94.5048%
Source Step = 94.5759%
Source Step = 94.647%
Source Step = 94.7181%
Source Step = 94.7892%
Source Step = 94.8603%
Source Step = 94.9314%
Source Step = 95.0025%
Source Step = 95.0736%
Source Step = 95.1448%
Source Step = 95.2159%
Source Step = 95.287%
Source Step = 95.3581%
vernier = 0.00351959
Source Step = 95.4505%
Source Step = 95.5571%
Source Step = 95.6638%
Source Step = 95.7705%
Source Step = 95.8771%
vernier = 0.00527939
Source Step = 96.0104%
Source Step = 96.0944%
Source Step = 96.1344%
Source Step = 96.1744%
Source Step = 96.2144%
Source Step = 96.2544%
vernier = 0.00197977
Source Step = 96.3024%
Source Step = 96.3624%
Source Step = 96.4224%
Source Step = 96.4824%
Source Step = 96.5424%
vernier = 0.00296966
Source Step = 96.6114%
Source Step = 96.7013%
Source Step = 96.7913%
Source Step = 96.8813%
Source Step = 96.9713%
vernier = 0.00445449
Source Step = 97.0703%
Source Step = 97.2053%
Source Step = 97.3403%
Source Step = 97.4753%
Source Step = 97.6102%
vernier = 0.00668173
Source Step = 97.752%
Source Step = 97.9545%
Source Step = 98.1063%
Source Step = 98.1569%
Source Step = 98.2076%
Source Step = 98.2582%
Source Step = 98.3088%
vernier = 0.00250565
Source Step = 98.3619%
Source Step = 98.4379%
Source Step = 98.5138%
Source Step = 98.5897%
Source Step = 98.6657%
Source Step = 98.7416%
vernier = 0.00375847
Source Step = 98.8555%
Source Step = 98.9694%
Source Step = 99.0833%
Source Step = 99.1972%
Source Step = 99.311%
vernier = 0.00563771
Source Step = 99.4762%
Source Step = 99.647%
Source Step = 99.8179%
Source Step = 99.9887%
Source Step = 100%
Source Step = 100%
Source Step = 100%
Source Step = 100%
Source Step = 100%
Source Step = 100%
Source Step = 100%
Source Step = 100%
Source Step = 100%
Source Step = 100%
Source Step = 100%
Source Step = 100%
Source Step = 100%
Source Step = 100%
Source Step = 100%
Source Step = 100%
Source Step = 100%
Source Step = 100%
Source Step = 100%
Source Step = 100%
Source Step = 100%
Source Step = 100%
Source Step = 100%
Source Step = 100%
Source Step = 100%
Source Step = 100%
Source Step = 100%
Source Step = 100%
Source Step = 100%
Source Step = 100%
Source Step = 100%
Source Step = 100%
Source Step = 100%
Source Step = 100%
Source Step = 100%
Source Step = 100%
Source Step = 100%
Source Step = 100%
Source Step = 100%
Source Step = 100%
Source Step = 100%
Source Step = 100%
Source Step = 100%
Source Step = 100%
Source Step = 100%
Source Step = 100%
Source Step = 100%
Source Step = 100%
Source Step = 100%
Source Step = 100%
Source Step = 100%
Source Step = 100%
Source Step = 100%
Source Step = 100%
Source Step = 100%
Source Step = 100%
Source Step = 100%
Source Step = 100%
Source Step = 100%
Source Step = 100%
Source Step = 100%
Source Step = 100%
Source Step = 100%
Source Step = 100%
Source Step = 100%
Source Step = 100%
Source Step = 100%
Source Step = 100%
Source Step = 100%
Source Step = 100%
Source Step = 100%
Source Step = 100%
Source Step = 100%
Source Step = 100%
Source Step = 100%
Source Step = 100%
Source Step = 100%
Source Step = 100%
Source Step = 100%
Source Step = 100%
Source Step = 100%
Source Step = 100%
Source Step = 100%
Source Step = 100%
Source Step = 100%
Source Step = 100%
Source Step = 100%
Source Step = 100%
Source Step = 100%
Source Step = 100%
Source Step = 100%
Source Step = 100%
Source Step = 100%
Source Step = 100%
Source Step = 100%
Source Step = 100%
Source Step = 100%
Source Step = 100%
Source Step = 100%
Source Step = 100%
Source Step = 100%
Source Step = 100%
Source Step = 100%
Source Step = 100%
Source Step = 100%
Source Step = 100%
Source Step = 100%
Source Step = 100%
Source Step = 100%
Source Step = 100%
Source Step = 100%
Source Step = 100%
Source Step = 100%
Source Step = 100%
Source Step = 100%
Source Step = 100%
Source Step = 100%
Source Step = 100%
Source Step = 100%
Source Step = 100%
Source Step = 100%
Source Step = 100%
Source Step = 100%
Source Step = 100%
Source Step = 100%
Source Step = 100%
Source Step = 100%
Source Step = 100%
Source Step = 100%
Source Step = 100%
Source Step = 100%
Source Step = 100%
Source Step = 100%
Source Step = 100%
Source Step = 100%
Source Step = 100%
Source Step = 100%
Source Step = 100%
Source Step = 100%
Source Step = 100%
Source Step = 100%
Source Step = 100%
Source Step = 100%
Source Step = 100%
Source Step = 100%
Source Step = 100%
Source Step = 100%
Source Step = 100%
Source Step = 100%
Source Step = 100%
Source Step = 100%
Source Step = 100%
Source Step = 100%
Source Step = 100%
Source Step = 100%
Source Step = 100%
Source Step = 100%
Source Step = 100%
Source Step = 100%
Source Step = 100%
Source Step = 100%
Source Step = 100%
Source Step = 100%
Source Step = 100%
Source Step = 100%
Source Step = 100%
Source Step = 100%
Source Step = 100%
Source Step = 100%
Source Step = 100%
Source Step = 100%
Source Step = 100%
Source Step = 100%
Source Step = 100%
Source Step = 100%
Source Step = 100%
Source Step = 100%
Source Step = 100%
Source Step = 100%
Source Step = 100%
Source Step = 100%
Source Step = 100%
Source Step = 100%
Source Step = 100%
Source Step = 100%
Source Step = 100%
Source Step = 100%
Source Step = 100%
Source Step = 100%
Source Step = 100%
Source Step = 100%
Source Step = 100%
Source Step = 100%
Source Step = 100%
Source Step = 100%
Source Step = 100%
Source Step = 100%
Source Step = 100%
Source Step = 100%
Source Step = 100%
Source Step = 100%
Source Step = 100%
Source Step = 100%
Source Step = 100%
Source Step = 100%
Source Step = 100%
Source Step = 100%
Source Step = 100%
Source Step = 100%
Source Step = 100%
Source Step = 100%
Source Step = 100%
Source Step = 100%
Source Step = 100%
Source Step = 100%
Source Step = 100%
Source Step = 100%
Source Step = 100%
Source Step = 100%
Source Step = 100%
Source Step = 100%
Source Step = 100%
Source Step = 100%
Source Step = 100%
Source Step = 100%
Source Step = 100%
Source Step = 100%
Source Step = 100%
Source Step = 100%
Source Step = 100%
Source Step = 100%
Source Step = 100%
Source Step = 100%
Source Step = 100%
Source Step = 100%
Source Step = 100%
Source Step = 100%
Source Step = 100%
Source Step = 100%
Source Step = 100%
Source Step = 100%
Source Step = 100%
Source Step = 100%
Source Step = 100%
Source Step = 100%
Source Step = 100%
Source Step = 100%
Source Step = 100%
Source Step = 100%
Source Step = 100%
Source Step = 100%
Source Step = 100%
Source Step = 100%
Source Step = 100%
Source Step = 100%
Source Step = 100%
Source Step = 100%
Source Step = 100%
Source Step = 100%
Source Step = 100%
Source Step = 100%
Source Step = 100%
Source Step = 100%
Source Step = 100%
Source Step = 100%
Source Step = 100%
Source Step = 100%
Source Step = 100%
Source Step = 100%
Source Step = 100%
Source Step = 100%
Source Step = 100%
Source Step = 100%
Source Step = 100%
Source Step = 100%
Source Step = 100%
Source Step = 100%
Source Step = 100%
Source Step = 100%
Source Step = 100%
Source Step = 100%
Source Step = 100%
Source Step = 100%
Source Step = 100%
Source Step = 100%
Source Step = 100%
Source Step = 100%
Source Step = 100%
Source Step = 100%
Source Step = 100%
Source Step = 100%
Source Step = 100%
Source Step = 100%
Source Step = 100%
Source Step = 100%
Source Step = 100%
Source Step = 100%
Source Step = 100%
Source Step = 100%
Source Step = 100%
Source Step = 100%
Source Step = 100%
Source Step = 100%
Source Step = 100%
Source Step = 100%
Source Step = 100%
Source Step = 100%
Source Step = 100%
Source Step = 100%
Source Step = 100%
Source Step = 100%
Source Step = 100%
Source Step = 100%
Source Step = 100%
Source Step = 100%
Source Step = 100%
Source Step = 100%
Source Step = 100%
Source Step = 100%
Source Step = 100%
Source Step = 100%
Source Step = 100%
Source Step = 100%
Source Step = 100%
Source Step = 100%
Source Step = 100%
Source Step = 100%
Source Step = 100%
Source Step = 100%
Source Step = 100%
Source Step = 100%
Source Step = 100%
Source Step = 100%
Source Step = 100%
Source Step = 100%
Source Step = 100%
Source Step = 100%
Source Step = 100%
Source Step = 100%
Source Step = 100%
Source Step = 100%
Source Step = 100%
Source Step = 100%
Source Step = 100%
Source Step = 100%
Source Step = 100%
Source Step = 100%
Source Step = 100%
Source Step = 100%
Source Step = 100%
Source Step = 100%
Source Step = 100%
Source Step = 100%
Source Step = 100%
Source Step = 100%
Source Step = 100%
Source Step = 100%
Source Step = 100%
Source Step = 100%
Source Step = 100%
Source Step = 100%
Source Step = 100%
Source Step = 100%
Source Step = 100%
Source Step = 100%
Source Step = 100%
Source Step = 100%
Source Step = 100%
Source Step = 100%
Source Step = 100%
Source Step = 100%
Source Step = 100%
Source Step = 100%
Source Step = 100%
Source Step = 100%
Source Step = 100%
Source Step = 100%
Source Step = 100%
Source Step = 100%
Source Step = 100%
Source Step = 100%
Source Step = 100%
Source Step = 100%
Source Step = 100%
Source Step = 100%
Source Step = 100%
Source Step = 100%
Source Step = 100%
Source Step = 100%
Source Step = 100%
Source Step = 100%
Source Step = 100%
Source Step = 100%
Source Step = 100%
Source Step = 100%
Source Step = 100%
Source Step = 100%
Source Step = 100%
Source Step = 100%
Source Step = 100%
Source Step = 100%
Source Step = 100%
Source Step = 100%
Source Step = 100%
Source Step = 100%
Source Step = 100%
Source Step = 100%
Source Step = 100%
Source Step = 100%
Source Step = 100%
Source Step = 100%
Source Step = 100%
Source Step = 100%
Source Step = 100%
Source Step = 100%
Source Step = 100%
Source Step = 100%
Source Step = 100%
Source Step = 100%
Source Step = 100%
Source Step = 100%
Source Step = 100%
Source Step = 100%
Source Step = 100%
Source Step = 100%
Source Step = 100%
Source Step = 100%
Source Step = 100%
Source Step = 100%
Source Step = 100%
Source Step = 100%
Source Step = 100%
Source Step = 100%
Source Step = 100%
Source Step = 100%
Source Step = 100%
Source Step = 100%
Source Step = 100%
Source Step = 100%
Source Step = 100%
Source Step = 100%
Source Step = 100%
Source Step = 100%
Source Step = 100%
Source Step = 100%
Source Step = 100%
Source Step = 100%
Source Step = 100%
Source Step = 100%
Source Step = 100%
Source Step = 100%
Source Step = 100%
Source Step = 100%
Source Step = 100%
Source Step = 100%
Source Step = 100%
Source Step = 100%
Source Step = 100%
Source Step = 100%
Source Step = 100%
Source Step = 100%
Source Step = 100%
Source Step = 100%
Source Step = 100%
Source Step = 100%
Source Step = 100%
Source Step = 100%
Source Step = 100%
Source Step = 100%
Source Step = 100%
Source Step = 100%
Source Step = 100%
Source Step = 100%
Source Step = 100%
Source Step = 100%
Source Step = 100%
Source Step = 100%
Source Step = 100%
Source Step = 100%
Source Step = 100%
Source Step = 100%
Source Step = 100%
Source Step = 100%
Source Step = 100%
Source Step = 100%
Source Step = 100%
Source Step = 100%
Source Step = 100%
Source Step = 100%
Source Step = 100%
Source Step = 100%
Source Step = 100%
Source Step = 100%
Source Step = 100%
Source Step = 100%
Source Step = 100%
Source Step = 100%
Source Step = 100%
Source Step = 100%
Source Step = 100%
Source Step = 100%
Source Step = 100%
Source Step = 100%
Source Step = 100%
Source Step = 100%
Source Step = 100%
Source Step = 100%
Source Step = 100%
Source Step = 100%
Source Step = 100%
Source Step = 100%
Source Step = 100%
Source Step = 100%
Source Step = 100%
Source Step = 100%
Source Step = 100%
Source Step = 100%
Source Step = 100%
Source Step = 100%
Source Step = 100%

Date: Sun Mar 15 16:07:11 2020
Total elapsed time: 4.598 seconds.

tnom = 27
temp = 27
method = trap
totiter = 471138
traniter = 0
tranpoints = 0
accept = 0
rejected = 0
matrix size = 17
fillins = 12
solver = Normal
Matrix Compiler1: 2.01 KB object code size  0.3/0.2/[0.1]
Matrix Compiler2: off  [0.1]/0.2/0.1

