Circuit: * C:\Gits\rf-receiver\simulations\Draft1.asc

Direct Newton iteration for .op point succeeded.
.step temp=0°C
.step temp=5°C
.step temp=10°C
.step temp=15°C
.step temp=20°C
.step temp=25°C
.step temp=30°C
.step temp=35°C
.step temp=40°C
.step temp=45°C
.step temp=50°C
.step temp=55°C
.step temp=60°C
.step temp=65°C
.step temp=70°C
.step temp=75°C
.step temp=80°C
.step temp=85°C
.step temp=90°C
.step temp=95°C
.step temp=100°C

Date: Wed Mar 18 21:04:31 2020
Total elapsed time: 0.404 seconds.

tnom = 27
temp = 100
method = modified trap
totiter = 255
traniter = 248
tranpoints = 125
accept = 125
rejected = 0
matrix size = 6
fillins = 0
solver = Normal
Matrix Compiler1:      20 opcodes  0.1/[0.0]/0.1
Matrix Compiler2:      37 opcodes  0.1/[0.0]/0.1

